      39
Average CN=7.69230769231 , Scale Ag = 0.9694 , Scale Au = 0.898 
Au 20.0120116153 19.9809248604 15.6481814239 6.0 [1, 4, 7, 10, 13, 16]
Au 19.9649611004 19.9843489699 18.5316105670 12.0 [2, 4, 5, 7, 8, 10, 11, 13, 14, 16, 17, 0]
Au 19.9683373908 19.9777026492 21.4340927119 12.0 [3, 5, 6, 8, 9, 11, 12, 14, 15, 17, 18, 1]
Au 19.9532582312 20.0370351729 24.3252712211 6.0 [6, 9, 12, 15, 18, 2]
Ag 22.3756624844 20.7695417442 17.0271915039 8.0 [5, 7, 16, 19, 21, 37, 0, 1]
Ag 22.3395278653 20.7819019932 20.0316511776 12.0 [6, 8, 17, 19, 20, 21, 22, 37, 38, 1, 2, 4]
Ag 22.3509205406 20.8056988626 23.0057370672 8.0 [9, 18, 20, 22, 38, 2, 3, 5]
Au 19.9633019650 22.4955031877 16.9232067113 8.0 [8, 10, 21, 23, 25, 0, 1, 4]
Au 19.9066447279 22.4427760144 19.9868747629 12.0 [9, 11, 21, 22, 23, 24, 25, 26, 1, 2, 5, 7]
Au 19.9814452628 22.5392325188 23.0668559966 8.0 [12, 22, 24, 26, 2, 3, 6, 8]
Ag 17.5937563072 20.7074827640 16.9473966634 8.0 [11, 13, 25, 27, 29, 0, 1, 7]
Ag 17.5988726474 20.7284650625 19.9562007731 12.0 [12, 14, 25, 26, 27, 28, 29, 30, 1, 2, 8, 10]
Au 17.5126749053 20.7002272078 23.0136235029 8.0 [15, 26, 28, 30, 2, 3, 9, 11]
Ag 18.5759862591 17.8957110880 16.9656478705 8.0 [14, 16, 29, 31, 33, 0, 1, 10]
Au 18.5066792172 17.9483130513 19.9124189797 12.0 [15, 17, 29, 30, 31, 32, 33, 34, 1, 2, 11, 13]
Au 18.4716025758 17.9570610833 23.0320018728 8.0 [18, 30, 32, 34, 2, 3, 12, 14]
Au 21.5097009575 17.9607889660 16.9906256945 8.0 [17, 33, 35, 37, 0, 1, 4, 13]
Ag 21.4644831865 17.9928224556 20.0241936616 12.0 [18, 33, 34, 35, 36, 37, 38, 1, 2, 5, 14, 16]
Ag 21.4298152938 17.9877679086 23.0185125466 8.0 [34, 36, 38, 2, 3, 6, 15, 17]
Au 24.6312937764 21.5987711473 18.5299951955 5.0 [20, 21, 37, 4, 5]
Ag 24.5998551751 21.6345741600 21.4014982277 5.0 [22, 38, 5, 6, 19]
Au 22.3335083569 23.2359314208 18.5503232241 7.0 [22, 23, 4, 5, 7, 8, 19]
Au 22.3147863652 23.2686130704 21.5199417183 7.0 [24, 5, 6, 8, 9, 20, 21]
Au 19.9532645816 24.8426935320 18.5157995151 5.0 [24, 25, 7, 8, 21]
Au 19.8963587167 24.8648812558 21.4145225193 5.0 [26, 8, 9, 22, 23]
Ag 17.5894083885 23.1968862443 18.4883776435 7.0 [26, 27, 7, 8, 10, 11, 23]
Ag 17.5951496438 23.1854328351 21.5231177021 7.0 [28, 8, 9, 11, 12, 24, 25]
Au 15.3284070881 21.4202232494 18.4781459658 5.0 [28, 29, 10, 11, 25]
Au 15.3397424906 21.5024810158 21.4045368713 5.0 [30, 11, 12, 26, 27]
Ag 16.1930301074 18.6558906791 18.4469499196 8.0 [30, 31, 32, 10, 11, 13, 14, 27]
Au 16.1340371232 18.6918310861 21.3768929672 7.0 [32, 11, 12, 14, 15, 28, 29]
Ag 17.2006693437 15.9196496911 18.4627979446 5.0 [32, 33, 13, 14, 29]
Ag 17.0973998355 16.0415840543 21.4078613831 6.0 [34, 14, 15, 29, 30, 31]
Au 20.0947134221 15.9339573902 18.5226847016 7.0 [34, 35, 13, 14, 16, 17, 31]
Au 19.9590265038 16.0157857726 21.4974139588 7.0 [36, 14, 15, 17, 18, 32, 33]
Ag 22.9194743102 16.0950999308 18.5816990508 6.0 [36, 37, 38, 16, 17, 33]
Ag 22.8070410523 16.0184074214 21.5078899152 5.0 [38, 17, 18, 34, 35]
Au 23.8240773841 18.7970599265 18.6087344114 7.0 [38, 4, 5, 16, 17, 19, 35]
Ag 23.7507115049 18.7837972264 21.5151926701 8.0 [5, 6, 17, 18, 20, 35, 36, 37]
