     147
Average CN=9.4693877551 , Scale Cu = 0.98025 , Scale Ag = 0.921 
Ag 19.9267881598 19.9515671811 20.0196566584 12.0 [1, 2, 3, 4, 5, 6, 7, 8, 9, 10, 11, 12]
Cu 22.2638931032 20.0269061200 18.5644967611 12.0 [2, 6, 8, 11, 12, 13, 14, 33, 34, 39, 43, 0]
Ag 22.2616131187 19.9461764922 21.4659273402 12.0 [6, 8, 9, 10, 14, 15, 31, 32, 40, 44, 0, 1]
Cu 17.6699343340 19.9700400652 18.5581472472 12.0 [4, 5, 7, 11, 12, 16, 17, 37, 38, 41, 45, 0]
Ag 17.6128344929 19.9781458954 21.4812667152 12.0 [5, 7, 9, 10, 17, 18, 35, 36, 42, 46, 0, 3]
Ag 18.5125769975 22.2854843051 20.0548395311 12.0 [6, 10, 12, 19, 20, 41, 42, 47, 51, 0, 3, 4]
Ag 21.3958294096 22.2032249199 19.9745652598 12.0 [10, 12, 20, 21, 39, 40, 48, 52, 0, 1, 2, 5]
Ag 18.5056825217 17.6638218278 20.0099965298 12.0 [8, 9, 11, 22, 23, 45, 46, 49, 53, 0, 3, 4]
Ag 21.3500259976 17.6394408315 20.0412188729 12.0 [9, 11, 23, 24, 43, 44, 50, 54, 0, 1, 2, 7]
Ag 19.9495930088 18.5916326182 22.4541063060 12.0 [10, 25, 26, 31, 35, 49, 50, 0, 2, 4, 7, 8]
Ag 19.9401768231 21.3923397491 22.4241740728 12.0 [26, 27, 32, 36, 47, 48, 0, 2, 4, 5, 6, 9]
Ag 20.0903612547 18.5605002117 17.6946561944 12.0 [12, 28, 29, 33, 37, 53, 54, 0, 1, 3, 7, 8]
Ag 19.8667979436 21.3798679427 17.7134571417 12.0 [29, 30, 34, 38, 51, 52, 0, 1, 3, 5, 6, 11]
Ag 24.5624102022 20.0087175609 17.1644882180 12.0 [14, 33, 34, 39, 43, 55, 56, 84, 86, 100, 110, 1]
Ag 24.6262342559 20.0401138921 19.9809454733 12.0 [15, 39, 40, 43, 44, 56, 57, 102, 112, 1, 2, 13]
Ag 24.6185781075 19.9707664927 22.9237214472 12.0 [31, 32, 40, 44, 57, 58, 79, 81, 103, 113, 2, 14]
Ag 15.4281885414 19.9983277616 17.1121929586 12.0 [17, 37, 38, 41, 45, 59, 60, 94, 96, 105, 115, 3]
Ag 15.3052832129 20.0206101263 19.9820662794 12.0 [18, 41, 42, 45, 46, 60, 61, 107, 117, 3, 4, 16]
Ag 15.2516913973 20.0445260698 22.8672246817 12.0 [35, 36, 42, 46, 61, 62, 89, 91, 108, 118, 4, 17]
Cu 17.2328730100 24.5572233495 19.9757768209 12.0 [20, 41, 42, 47, 51, 63, 64, 104, 106, 120, 130, 5]
Cu 19.9596121553 24.5435296960 19.9741150507 12.0 [21, 47, 48, 51, 52, 64, 65, 122, 132, 5, 6, 19]
Ag 22.7847083542 24.4874325767 19.9582005530 12.0 [39, 40, 48, 52, 65, 66, 99, 101, 123, 133, 6, 20]
Cu 17.1513805309 15.4332010237 19.9588318328 12.0 [23, 45, 46, 49, 53, 67, 68, 114, 116, 125, 135, 7]
Cu 19.9587592564 15.3651099258 19.9763355161 12.0 [24, 49, 50, 53, 54, 68, 69, 127, 137, 7, 8, 22]
Ag 22.8480802869 15.3212141451 20.0434513018 12.0 [43, 44, 50, 54, 69, 70, 109, 111, 128, 138, 8, 23]
Cu 19.9667277303 17.2085469949 24.6348644627 12.0 [26, 31, 35, 49, 50, 71, 72, 80, 90, 124, 126, 9]
Cu 19.9656959435 19.9556092043 24.6929095885 12.0 [27, 31, 32, 35, 36, 72, 73, 82, 92, 9, 10, 25]
Cu 20.0291980146 22.9140471196 24.6232329750 12.0 [32, 36, 47, 48, 73, 74, 83, 93, 119, 121, 10, 26]
Cu 20.0403309972 17.2130914366 15.4361863281 12.0 [29, 33, 37, 53, 54, 75, 76, 85, 95, 134, 136, 11]
Ag 19.9996968673 19.9708430230 15.3571284941 12.0 [30, 33, 34, 37, 38, 76, 77, 87, 97, 11, 12, 28]
Ag 19.9512480909 22.8393019156 15.3594010821 12.0 [34, 38, 51, 52, 77, 78, 88, 98, 129, 131, 12, 29]
Cu 22.2468956295 18.5610581615 23.8161325893 12.0 [32, 44, 50, 79, 80, 82, 139, 2, 9, 15, 25, 26]
Ag 22.2824324664 21.4115066788 23.8445022886 12.0 [40, 48, 81, 82, 83, 140, 2, 10, 15, 26, 27, 31]
Cu 22.3194876819 18.6194045788 16.2662233699 12.0 [34, 43, 54, 84, 85, 87, 141, 1, 11, 13, 28, 29]
Ag 22.3045709744 21.4008441237 16.2881724191 12.0 [39, 52, 86, 87, 88, 142, 1, 12, 13, 29, 30, 33]
Cu 17.6667129230 18.5605764661 23.8189527611 12.0 [36, 46, 49, 89, 90, 92, 143, 4, 9, 18, 25, 26]
Ag 17.5948379632 21.4371896178 23.8410936360 12.0 [42, 47, 91, 92, 93, 144, 4, 10, 18, 26, 27, 35]
Ag 17.6936217713 18.5673572492 16.2544208890 12.0 [38, 45, 53, 94, 95, 97, 145, 3, 11, 16, 28, 29]
Cu 17.6627205290 21.3734202922 16.2584168413 12.0 [41, 51, 96, 97, 98, 146, 3, 12, 16, 29, 30, 37]
Cu 23.6765279684 22.2552889835 18.5523848946 12.0 [40, 52, 99, 100, 102, 142, 1, 6, 13, 14, 21, 34]
Ag 23.7831293169 22.3111809523 21.4538964520 12.0 [48, 101, 102, 103, 140, 2, 6, 14, 15, 21, 32, 39]
Ag 16.2697461579 22.3053805911 18.5309559287 12.0 [42, 51, 104, 105, 107, 146, 3, 5, 16, 17, 19, 38]
Cu 16.2283142660 22.3364331874 21.4407991421 12.0 [47, 106, 107, 108, 144, 4, 5, 17, 18, 19, 36, 41]
Ag 23.6657990807 17.7347852050 18.5608872349 12.0 [44, 54, 109, 110, 112, 141, 1, 8, 13, 14, 24, 33]
Ag 23.7587758740 17.6441553482 21.5127333007 12.0 [50, 111, 112, 113, 139, 2, 8, 14, 15, 24, 31, 43]
Ag 16.1783300672 17.6457205846 18.5429654703 12.0 [46, 53, 114, 115, 117, 145, 3, 7, 16, 17, 22, 37]
Ag 16.1183295139 17.6234873449 21.4985485064 12.0 [49, 116, 117, 118, 143, 4, 7, 17, 18, 22, 35, 45]
Ag 18.5141278839 23.7833034823 22.3307377551 12.0 [48, 119, 120, 122, 144, 5, 10, 19, 20, 27, 36, 42]
Ag 21.3809641863 23.7446007386 22.3344990776 12.0 [121, 122, 123, 140, 6, 10, 20, 21, 27, 32, 40, 47]
Ag 18.5139918333 16.2404592150 22.3540299734 12.0 [50, 124, 125, 127, 143, 7, 9, 22, 23, 25, 35, 46]
Ag 21.4038325162 16.2170838907 22.4027448539 12.0 [126, 127, 128, 139, 8, 9, 23, 24, 25, 31, 44, 49]
Ag 18.5293890054 23.8075415378 17.6833053001 12.0 [52, 129, 130, 132, 146, 5, 12, 19, 20, 30, 38, 41]
Ag 21.4055258385 23.7439354215 17.6534367267 12.0 [131, 132, 133, 142, 6, 12, 20, 21, 30, 34, 39, 51]
Ag 18.5725429126 16.2108578695 17.6810770216 12.0 [54, 134, 135, 137, 145, 7, 11, 22, 23, 28, 37, 45]
Ag 21.4543654917 16.1685780264 17.6359137789 12.0 [136, 137, 138, 141, 8, 11, 23, 24, 28, 33, 43, 53]
Ag 26.8376085198 20.2227695749 15.6864049688 6.0 [56, 84, 86, 100, 110, 13]
Ag 27.0388510339 19.9730259007 18.5573489449 8.0 [57, 100, 102, 110, 112, 13, 14, 55]
Ag 27.0288852891 19.9142436317 21.4502084595 8.0 [58, 102, 103, 112, 113, 14, 15, 56]
Ag 26.9126260737 19.9884326154 24.3801490702 6.0 [79, 81, 103, 113, 15, 57]
Ag 13.1197283449 20.1919872743 15.6596781518 6.0 [60, 94, 96, 105, 115, 16]
Cu 13.1532664693 20.1139021730 18.4711192214 8.0 [61, 105, 107, 115, 117, 16, 17, 59]
Ag 12.8279525016 20.0534514585 21.3055659461 8.0 [62, 107, 108, 117, 118, 17, 18, 60]
Ag 12.8972700781 20.0658553621 24.2716454999 6.0 [89, 91, 108, 118, 18, 61]
Cu 16.0386840440 26.6391445204 20.0216084342 6.0 [64, 104, 106, 120, 130, 19]
Cu 18.6976338875 26.6310873508 19.9658534509 8.0 [65, 120, 122, 130, 132, 19, 20, 63]
Cu 21.3275044559 26.6377516177 19.9612198528 8.0 [66, 122, 123, 132, 133, 20, 21, 64]
Cu 24.0361072175 26.6349742438 19.9497606617 6.0 [99, 101, 123, 133, 21, 65]
Cu 16.0359314365 13.2873023251 19.9556325572 6.0 [68, 114, 116, 125, 135, 22]
Cu 18.5619430912 13.3615280861 19.9430995103 8.0 [69, 125, 127, 135, 137, 22, 23, 67]
Ag 21.2999304847 13.0062143203 19.9065624928 8.0 [70, 127, 128, 137, 138, 23, 24, 68]
Ag 24.5661195818 13.2128005361 20.0314190834 6.0 [109, 111, 128, 138, 24, 69]
Ag 20.0696039163 15.6913194356 26.8368915001 6.0 [72, 80, 90, 124, 126, 25]
Ag 20.0461799975 18.5867124795 26.9629283047 8.0 [73, 80, 82, 90, 92, 25, 26, 71]
Cu 20.0397385877 21.4607320231 26.6288800710 8.0 [74, 82, 83, 92, 93, 26, 27, 72]
Ag 20.0507312161 24.3351760379 26.8484365157 6.0 [83, 93, 119, 121, 27, 73]
Cu 20.1054943472 16.0442919141 13.3079625642 6.0 [76, 85, 95, 134, 136, 28]
Cu 20.0424204446 18.6168445854 13.2180926449 8.0 [77, 85, 87, 95, 97, 28, 29, 75]
Cu 19.9537486994 21.3041460666 13.1527480523 8.0 [78, 87, 88, 97, 98, 29, 30, 76]
Ag 19.8108389461 24.1816081999 13.0253465151 6.0 [88, 98, 129, 131, 30, 77]
Ag 24.5802688605 18.4888577804 25.2635688475 8.0 [80, 81, 82, 113, 139, 15, 31, 58]
Cu 22.1788853229 17.1472468468 25.8125795202 8.0 [82, 126, 139, 25, 31, 71, 72, 79]
Cu 24.6022430878 21.5272663914 25.0680996329 8.0 [82, 83, 103, 140, 15, 32, 58, 79]
Ag 22.3772948422 20.0005256380 26.2406644961 9.0 [83, 26, 31, 32, 72, 73, 79, 80, 81]
Ag 22.4357547171 23.0033777841 26.0529117669 8.0 [121, 140, 27, 32, 73, 74, 81, 82]
Ag 24.5089863699 18.7154761462 14.6886757261 8.0 [85, 86, 87, 110, 141, 13, 33, 55]
Cu 22.1297180598 17.3766578129 14.1207155253 8.0 [87, 136, 141, 28, 33, 75, 76, 84]
Cu 24.5500805280 21.5878734539 14.9973815807 8.0 [87, 88, 100, 142, 13, 34, 55, 84]
Cu 22.2388554398 19.9676947369 13.9552256970 9.0 [88, 29, 33, 34, 76, 77, 84, 85, 86]
Ag 22.3461430017 22.7853816011 13.8589085261 8.0 [131, 142, 30, 34, 77, 78, 86, 87]
Ag 15.3199611095 18.5249819406 25.2057122154 8.0 [90, 91, 92, 118, 143, 18, 35, 62]
Ag 17.6792221078 17.0649085525 26.0337124291 8.0 [92, 124, 143, 25, 35, 71, 72, 89]
Ag 15.2104250961 21.5342832733 25.3163331959 8.0 [92, 93, 108, 144, 18, 36, 62, 89]
Ag 17.6538068817 20.0000392781 26.2541491713 9.0 [93, 26, 35, 36, 72, 73, 89, 90, 91]
Ag 17.7105298699 22.9828662600 26.1231374653 8.0 [119, 144, 27, 36, 73, 74, 91, 92]
Ag 15.3991754869 18.6126841745 14.6237020691 8.0 [95, 96, 97, 115, 145, 16, 37, 59]
Ag 17.7701747676 17.1744166627 13.8604718990 8.0 [97, 134, 145, 28, 37, 75, 76, 94]
Cu 15.6063614042 21.3785917359 14.8573771802 8.0 [97, 98, 105, 146, 16, 38, 59, 94]
Cu 17.7351337034 20.0913763294 13.9569203973 9.0 [98, 29, 37, 38, 76, 77, 94, 95, 96]
Cu 17.7353679551 22.6110437574 14.0385900287 8.0 [129, 146, 30, 38, 77, 78, 96, 97]
Cu 24.9119351735 24.4859118003 18.4804372223 8.0 [100, 101, 102, 133, 142, 21, 39, 66]
Cu 25.7374541359 22.3995428989 17.1554126370 8.0 [102, 142, 13, 39, 55, 56, 86, 99]
Cu 24.9868735238 24.6402727977 21.3835687926 8.0 [102, 103, 123, 140, 21, 40, 66, 99]
Ag 26.1706342894 22.5152862918 19.8908020145 9.0 [103, 14, 39, 40, 56, 57, 99, 100, 101]
Ag 26.1037489368 22.4779489476 22.9348205115 8.0 [140, 15, 40, 57, 58, 81, 101, 102]
Ag 14.9073747713 24.7269568070 18.4897811403 8.0 [105, 106, 107, 130, 146, 19, 41, 63]
Cu 14.1048423887 22.2731321527 17.0732854418 8.0 [107, 146, 16, 41, 59, 60, 96, 104]
Cu 15.1428095614 24.5561671221 21.2936769433 8.0 [107, 108, 120, 144, 19, 42, 63, 104]
Ag 13.7685533382 22.4661233757 19.8950362204 9.0 [108, 17, 41, 42, 60, 61, 104, 105, 106]
Ag 13.8850839513 22.5044716047 22.7738278147 8.0 [144, 18, 42, 61, 62, 91, 106, 107]
Cu 25.1577932350 15.5956164199 18.7065010750 8.0 [110, 111, 112, 138, 141, 24, 43, 70]
Cu 25.9688477418 17.7327869631 17.3744919402 8.0 [112, 141, 13, 43, 55, 56, 84, 109]
Cu 25.2240690069 15.5255878312 21.3591863372 8.0 [112, 113, 128, 139, 24, 44, 70, 109]
Cu 26.0384297236 17.6577682794 20.0346657818 9.0 [113, 14, 43, 44, 56, 57, 109, 110, 111]
Cu 26.0288180723 17.6662775992 22.7610177189 8.0 [139, 15, 44, 57, 58, 79, 111, 112]
Ag 14.8324950784 15.2297897984 18.4175489018 8.0 [115, 116, 117, 135, 145, 22, 45, 67]
Ag 13.8722532747 17.6191245452 16.9477759537 8.0 [117, 145, 16, 45, 59, 60, 94, 114]
Ag 14.7732466740 15.2057822593 21.3588196190 8.0 [117, 118, 125, 143, 22, 46, 67, 114]
Ag 13.6206446143 17.6189982980 19.8835130696 9.0 [118, 17, 45, 46, 60, 61, 114, 115, 116]
Ag 13.6881931421 17.6083827213 22.8654329000 8.0 [143, 18, 46, 61, 62, 89, 116, 117]
Cu 18.7117391087 25.0815465597 24.5480067670 8.0 [120, 121, 122, 144, 27, 47, 74, 93]
Ag 17.2740621974 26.2159867338 22.3089705966 8.0 [122, 144, 19, 47, 63, 64, 106, 119]
Ag 21.4544043370 25.3626468452 24.5281016987 8.0 [122, 123, 140, 27, 48, 74, 83, 119]
Cu 20.0466943730 26.0433702596 22.1175252898 9.0 [123, 20, 47, 48, 64, 65, 119, 120, 121]
Cu 22.7795681198 25.9594037569 22.1230318867 8.0 [140, 21, 48, 65, 66, 101, 121, 122]
Cu 18.7165670340 14.9394318452 24.5618398178 8.0 [125, 126, 127, 143, 25, 49, 71, 90]
Cu 17.2126433963 14.0330235283 22.0521915735 8.0 [127, 143, 22, 49, 67, 68, 116, 124]
Cu 21.3051337761 14.9851241959 24.6236805404 8.0 [127, 128, 139, 25, 50, 71, 80, 124]
Ag 19.9328586232 13.7487858765 22.3653889922 9.0 [128, 23, 49, 50, 68, 69, 124, 125, 126]
Ag 22.9034026258 13.8221946125 22.4261210351 8.0 [139, 24, 50, 69, 70, 111, 126, 127]
Cu 18.6937642677 25.1497440658 15.4477028574 8.0 [130, 131, 132, 146, 30, 51, 78, 98]
Ag 17.2717730534 26.2369257848 17.6396044431 8.0 [132, 146, 19, 51, 63, 64, 104, 129]
Ag 21.4640726092 25.2905336328 15.3683486784 8.0 [132, 133, 142, 30, 52, 78, 88, 129]
Cu 20.0489321457 26.0447173571 17.8026168552 9.0 [133, 20, 51, 52, 64, 65, 129, 130, 131]
Cu 22.7789190620 25.9568685157 17.7550220603 8.0 [142, 21, 52, 65, 66, 99, 131, 132]
Cu 18.6995825257 15.0728087629 15.3709338391 8.0 [135, 136, 137, 145, 28, 53, 75, 95]
Ag 17.2156894246 13.8395459768 17.5616449797 8.0 [137, 145, 22, 53, 67, 68, 114, 134]
Ag 21.4251443922 14.8114327570 15.2603026910 8.0 [137, 138, 141, 28, 54, 75, 85, 134]
Cu 19.9685584798 13.9518971262 17.7328027259 9.0 [138, 23, 53, 54, 68, 69, 134, 135, 136]
Ag 23.0231840429 13.8688557771 17.6104049135 8.0 [141, 24, 54, 69, 70, 109, 136, 137]
Ag 23.8731660499 16.1051371074 23.8957215748 9.0 [31, 44, 50, 79, 80, 111, 113, 126, 128]
Cu 23.7496357774 23.8224976116 23.6679540734 9.0 [32, 40, 48, 81, 83, 101, 103, 121, 123]
Ag 23.9108709904 16.2768022171 16.1113775442 9.0 [33, 43, 54, 84, 85, 109, 110, 136, 138]
Cu 23.7388065263 23.7394458773 16.3335988826 9.0 [34, 39, 52, 86, 88, 99, 100, 131, 133]
Ag 16.1301324869 16.0092539957 23.8652866701 9.0 [35, 46, 49, 89, 90, 116, 118, 124, 125]
Ag 16.1232912792 23.9688739193 23.8332302104 9.0 [36, 42, 47, 91, 93, 106, 108, 119, 120]
Cu 16.3323176049 16.1937345376 16.1715014538 9.0 [37, 45, 53, 94, 95, 114, 115, 134, 135]
Ag 16.2293672260 23.7946247504 15.9885783575 9.0 [38, 41, 51, 96, 98, 104, 105, 129, 130]
